units  real
timestep  1
dimension  3
atom_style  full
boundary  p p p
neighbor  2.0 bin
neigh_modify  every 1 delay 0 check yes
bond_style  harmonic
angle_style  harmonic
dihedral_style  opls
read_data  lammps.data
  orthogonal box = (0 0 0) to (22 26 28)
  reading atoms ...
  144 atoms
  scanning bonds ...
  scanning angles ...
  scanning dihedrals ...
  reading bonds ...
  142 bonds
  reading angles ...
  260 angles
  reading dihedrals ...
  282 dihedrals
pair_style  buck/coul/long 15.0
pair_coeff 1 1 2649.6 0.2674 27.22
pair_coeff 1 2 4320.0 0.2928 137.6
pair_coeff 1 3 14176.0 0.2563 104.0
pair_coeff 2 2 14976.0 0.3236 637.6
pair_coeff 2 3 33702.4 0.2796 503.0
pair_coeff 3 3 75844.8 0.2461 396.9
kspace_style  ewald 1.0e-5
dump peodump all custom 1000 peo.dump id type x y z ix iy iz mol
dump traj all dcd 1000 peo.dcd
thermo_style  custom step temp press vol density pe ke etotal enthalpy fmax fnorm
thermo  100
group  CH type 1 2
124 atoms in group CH
fix CHbonds CH shake 0.0001 20 0 b 2
fix NPT all npt temp 350 350 100.0 iso 1.0 1.0 1500.0
run  1000
Ewald initialization ...
  G vector (1/distance) = 0.139029
  estimated absolute RMS force accuracy = 0.0033405
  estimated relative force accuracy = 1.00598e-05
  KSpace vectors: actual max1d max3d = 81 3 171
                  kxmax kymax kzmax  = 3 3 3
  update every 1 steps, delay 0 steps, check yes
Step Temp Press Volume Density PotEng KinEng TotEng Enthalpy Fmax Fnorm
0            0   -2041.5231        16016  0.091765404    2383.0485            0    2383.0485    1906.1958    193.78752    955.28196
Averages over the last 6 of 11 rows, steps 500 to 1000:
Temp Press Volume Density PotEng KinEng TotEng Enthalpy Fmax Fnorm
345.387 -63.8766 13941.4 0.105468 95.7158 118.396 214.112 200.411 62.1772 295.319
Loop time of 0.300714 on 4 procs for 1000 steps with 144 atoms
